OPT_V8/My_Campus_24/powerflow_results_t23.txt
Pandapower Network Debug Info
==================================================

BUS:
       vm_pu  va_degree      p_mw    q_mvar
0   0.992552   0.151866  0.001143  0.000849
1   0.987775   0.243281  0.001598  0.002267
2   0.983556   0.329899  0.002065  0.003234
3   0.988634   0.268611  0.002154  0.004674
4   0.989839   0.236003  0.002680  0.004818
5   0.992262   0.152937  0.003156  0.005924
6   0.990652   0.149319  0.001174  0.000844
7   0.997436   0.029907  0.001789  0.002141
8   0.997757   0.043382  0.002492  0.003510
9   0.999888   0.001029  0.008265  0.010387
10  0.999875   0.001080  0.010595  0.007760
11  0.999865   0.001166  0.011851  0.012309
12  0.999773   0.000916  0.010447  0.006649
13  0.999747   0.000830  0.013221  0.008224
14  0.999756   0.000888  0.013130  0.010487
15  0.999930   0.000741  0.000000  0.000000
16  0.999930   0.000747  0.000000  0.000000
17  0.999779   0.000946  0.000000  0.000000
18  0.999778   0.000956  0.000000  0.000000
19  1.000000   0.000000 -0.037836 -0.046593
20  1.000000   0.000006  0.000000  0.000000
21  1.000000   0.000000 -0.048234 -0.047694
22  1.000000   0.000007  0.000000  0.000000
--------------------------------------------------

LINE:
    p_from_mw  q_from_mvar   p_to_mw  q_to_mvar         pl_mw       ql_mvar  i_from_ka   i_to_ka      i_ka  vm_from_pu  va_from_degree  vm_to_pu  va_to_degree  loading_percent
0    0.037826     0.042593 -0.037823  -0.042591  3.174029e-06  2.474842e-06   0.002193  0.002193  0.002193    1.000000        0.000006  0.999930      0.000741         0.953294
1    0.048224     0.043694 -0.048212  -0.043685  1.139065e-05  8.881476e-06   0.002505  0.002505  0.002505    1.000000        0.000007  0.999779      0.000946         1.089003
2    0.030713     0.030458 -0.030711  -0.030457  1.446988e-06  1.128240e-06   0.001665  0.001665  0.001665    0.999930        0.000741  0.999888      0.001029         0.723908
3    0.010447     0.006649 -0.010447  -0.006649  5.305705e-08  4.136946e-08   0.000477  0.000477  0.000477    0.999779        0.000946  0.999773      0.000916         0.207284
4    0.026352     0.018711 -0.026351  -0.018711  5.713977e-07  4.455282e-07   0.001244  0.001244  0.001244    0.999779        0.000946  0.999756      0.000888         0.540976
5    0.007100     0.011133 -0.007019  -0.011069  8.155861e-05  6.359259e-05   0.019060  0.019060  0.019060    0.999930        0.000747  0.992552      0.151866         8.286921
6    0.004382     0.006809 -0.004331  -0.006769  5.088377e-05  3.967491e-05   0.011689  0.011689  0.011689    0.999778        0.000956  0.992262      0.152937         5.082313
7    0.001795     0.002145 -0.001789  -0.002141  5.286703e-06  4.122129e-06   0.004038  0.004038  0.004038    0.999778        0.000956  0.997436      0.029907         1.755484
8    0.005227     0.008371 -0.005210  -0.008358  1.675322e-05  1.306276e-05   0.014248  0.014248  0.014248    0.999778        0.000956  0.997757      0.043382         6.194630
9   -0.022446    -0.020069  0.022446   0.020069  3.135941e-07  2.445145e-07   0.001159  0.001159  0.001159    0.999875        0.001080  0.999888      0.001029         0.503939
10  -0.011851    -0.012309  0.011851   0.012309  1.428253e-07  1.113633e-07   0.000658  0.000658  0.000658    0.999865        0.001166  0.999875      0.001080         0.285982
11   0.013222     0.008224 -0.013221  -0.008224  1.186287e-07  9.249677e-08   0.000599  0.000599  0.000599    0.999756        0.000888  0.999747      0.000830         0.260634
12  -0.003677    -0.005511  0.003703   0.005532  2.661296e-05  2.075056e-05   0.009681  0.009681  0.009681    0.987775        0.243281  0.992552      0.151866         4.208961
13  -0.002154    -0.004674  0.002172   0.004688  1.809373e-05  1.410798e-05   0.007514  0.007514  0.007514    0.988634        0.268611  0.992552      0.151866         3.266856
14  -0.002065    -0.003234  0.002078   0.003244  1.376341e-05  1.073156e-05   0.005630  0.005630  0.005630    0.983556        0.329899  0.987775      0.243281         2.447867
15   0.002718     0.004848 -0.002680  -0.004818  3.775213e-05  2.943595e-05   0.008040  0.008040  0.008040    0.997757        0.043382  0.989839      0.236003         3.495593
16  -0.001174    -0.000844  0.001176   0.000845  1.853698e-06  1.445359e-06   0.002106  0.002106  0.002106    0.990652        0.149319  0.992262      0.152937         0.915706
--------------------------------------------------

TRAFO:
    p_hv_mw  q_hv_mvar   p_lv_mw  q_lv_mvar    pl_mw  ql_mvar   i_hv_ka   i_lv_ka  vm_hv_pu  va_hv_degree  vm_lv_pu  va_lv_degree  loading_percent
0  0.007110   0.012133 -0.007100  -0.011133  0.00001    0.001  0.000541  0.019060  0.999930      0.000741  0.999930      0.000747         0.140635
1  0.011413   0.018324 -0.011403  -0.017325  0.00001    0.001  0.000831  0.029943  0.999779      0.000946  0.999778      0.000956         0.215928
2  0.037836   0.046593 -0.037826  -0.042593  0.00001    0.004  0.000495  0.002193  1.000000      0.000000  1.000000      0.000006         0.150052
3  0.048234   0.047694 -0.048224  -0.043694  0.00001    0.004  0.000559  0.002505  1.000000      0.000000  1.000000      0.000007         0.169580
--------------------------------------------------
